* File: FA4.pex.netlist.pex
* Created: Tue Jun  7 17:55:14 2016
* Program "Calibre xRC"
* Version "v2012.2_26.20"
* Nominal Temperature: 27C
* Circuit Temperature: 27C
* 
.subckt PM_FA4%C0 61 65 74 78 89 95 118
c0 130 0 0.0237859f
c1 126 0 0.11341f
c2 125 0 0.0297818f
c3 123 0 0.0132836f
c4 106 0 0.0731454f
c5 104 0 0.136593f
c6 103 0 0.0816433f
c7 101 0 0.0858242f
c8 100 0 0.0650176f
c9 95 0 0.131666f
c10 92 0 0.141062f
c11 89 0 0.154612f
c12 84 0 0.347482f
c13 80 0 0.177971f
c14 78 0 0.125008f
c15 74 0 0.34162f
c16 69 0 0.170435f
c17 67 0 0.0653495f
c18 65 0 0.137321f
c19 61 0 0.111984f
c20 54 0 0.177424f
c21 53 0 0.105959f
c22 50 0 0.0664351f
c23 47 0 0.0588168f
c24 46 0 0.150802f
c25 39 0 0.10729f
c26 30 0 0.0137335f
c27 29 0 0.139167f
c28 28 0 0.299967f
c29 26 0 0.0174731f
c30 21 0 0.0803482f
c31 20 0 0.139389f
c32 19 0 0.156812f
c33 16 0 0.1073f
c34 12 0 0.205767f
c35 3 0 0.0411372f
r36 125 126 4
r37 104 123 0.0515298
r38 103 104 6.6276
r39 101 103 2.22128
r40 93 106 7.73958
r41 93 95 35.75
r42 92 106 7.73958
r43 91 101 4.73303
r44 91 92 55
r45 87 101 4.73303
r46 87 89 49.5
r47 84 118 0.154156
r48 83 84 3.3138
r49 81 100 1.29764
r50 81 83 17.0617
r51 80 106 1.29764
r52 80 83 7.44894
r53 76 100 7.73958
r54 76 78 35.75
r55 72 100 7.73958
r56 72 74 128
r57 69 70 4.4184
r58 67 99 8.43372
r59 67 98 8.43372
r60 67 69 7.87021
r61 65 98 37
r62 61 99 23.5
r63 53 126 4
r64 53 54 4
r65 47 130 4
r66 46 50 4
r67 46 47 4
r68 39 129 0.0492898
r69 31 125 0.0670392
r70 29 31 0.0421401
r71 29 30 0.6292
r72 28 130 0.0414747
r73 28 129 1.2116
r74 26 39 0.000127451
r75 25 30 0.0421401
r76 25 26 0.0669118
r77 20 21 4
r78 19 70 0.0348444
r79 19 20 0.0233251
r80 17 54 0.0407843
r81 16 17 4
r82 14 16 0.00329412
r83 12 14 0.0468783
r84 12 123 0.413913
r85 4 21 0.0579902
r86 3 50 0.0332647
r87 3 4 0.0363174
.ends

.subckt PM_FA4%2 80 81 85 92 96 105 109 120 126
c0 173 0 0.0200689f
c1 172 0 0.0151033f
c2 169 0 0.11341f
c3 168 0 0.0297818f
c4 166 0 0.0132853f
c5 151 0 0.020308f
c6 149 0 0.0882312f
c7 142 0 0.254614f
c8 137 0 0.0731454f
c9 135 0 0.136593f
c10 134 0 0.0817225f
c11 132 0 0.0858242f
c12 131 0 0.0650176f
c13 126 0 0.131666f
c14 123 0 0.14078f
c15 120 0 0.155436f
c16 114 0 0.347482f
c17 111 0 0.177971f
c18 109 0 0.125008f
c19 105 0 0.341942f
c20 100 0 0.171004f
c21 98 0 0.0653495f
c22 96 0 0.137321f
c23 92 0 0.112352f
c24 84 0 0.247491f
c25 80 0 7.50283e-20
c26 75 0 0.177734f
c27 74 0 0.105647f
c28 71 0 0.0336469f
c29 70 0 0.170434f
c30 67 0 0.109405f
c31 63 0 0.0662795f
c32 60 0 0.0424211f
c33 59 0 0.142442f
c34 54 0 0.0198531f
c35 53 0 0.0707305f
c36 48 0 0.0173061f
c37 47 0 0.0772972f
c38 45 0 0.0139068f
c39 38 0 0.0142877f
c40 37 0 0.139204f
c41 36 0 0.29613f
c42 29 0 0.0741073f
c43 28 0 0.139316f
c44 27 0 0.156739f
c45 24 0 0.1073f
c46 20 0 0.205769f
c47 10 0 0.0263418f
c48 8 0 0.0411088f
c49 7 0 0.0836338f
r50 168 169 4
r51 149 151 0.0494173
r52 135 166 0.0515298
r53 134 135 6.6276
r54 132 134 2.22128
r55 124 137 7.73958
r56 124 126 35.75
r57 123 137 7.73958
r58 122 132 4.73303
r59 122 123 55
r60 118 132 4.73303
r61 118 120 49.5
r62 112 131 1.29764
r63 112 114 17.0617
r64 111 137 1.29764
r65 111 114 7.44894
r66 107 131 7.73958
r67 107 109 35.75
r68 103 131 7.73958
r69 103 105 128
r70 100 101 4.4184
r71 98 130 8.43372
r72 98 129 8.43372
r73 98 100 7.87021
r74 96 129 37
r75 92 130 23.5
r76 87 142 16.3327
r77 85 87 4.608
r78 84 149 4
r79 83 84 8.16635
r80 81 83 2.304
r81 80 83 2.286
r82 74 169 4
r83 74 75 4
r84 71 142 4
r85 70 71 4
r86 66 70 0.132549
r87 66 67 1.6
r88 60 173 4
r89 59 63 4
r90 59 60 4
r91 54 67 0.120569
r92 50 54 0.0421401
r93 50 53 0.3341
r94 48 172 0.0494173
r95 47 48 4
r96 45 53 0.041297
r97 45 47 0.0662745
r98 39 168 0.0669118
r99 37 39 0.0421401
r100 37 38 0.6292
r101 36 173 0.0414747
r102 36 172 1.2116
r103 33 38 0.0421401
r104 33 48 0.0669118
r105 28 29 4
r106 27 101 0.0348444
r107 27 28 0.0233251
r108 25 75 0.0407843
r109 24 25 4
r110 22 24 0.00343137
r111 20 22 0.0468783
r112 20 166 0.413913
r113 10 71 0.0536569
r114 9 29 0.0579902
r115 8 63 0.0332647
r116 8 9 0.0363174
r117 7 10 0.0421401
r118 7 151 0.2535
.ends

.subckt PM_FA4%3 172 173 177 178 182 187 194 198 202 206 220 224 228 232 250 256
+ 260 266
c0 362 0 0.0252442f
c1 361 0 0.0142905f
c2 358 0 0.11341f
c3 357 0 0.0297818f
c4 354 0 0.11341f
c5 353 0 0.0282713f
c6 349 0 0.014963f
c7 346 0 0.0132836f
c8 344 0 0.0128038f
c9 316 0 0.0123888f
c10 314 0 0.0758438f
c11 309 0 0.020308f
c12 307 0 0.0875442f
c13 296 0 0.255508f
c14 295 0 0.0261729f
c15 290 0 0.255229f
c16 287 0 0.0731454f
c17 285 0 0.136593f
c18 284 0 0.0816433f
c19 282 0 0.0858242f
c20 281 0 0.0719253f
c21 279 0 0.136553f
c22 278 0 0.0805218f
c23 276 0 0.0858242f
c24 275 0 0.0650176f
c25 274 0 0.0650176f
c26 266 0 0.131666f
c27 263 0 0.141062f
c28 260 0 0.154612f
c29 256 0 0.131666f
c30 253 0 0.140919f
c31 250 0 0.155153f
c32 242 0 0.347482f
c33 239 0 0.177971f
c34 237 0 0.346633f
c35 234 0 0.177971f
c36 232 0 0.125008f
c37 228 0 0.34162f
c38 224 0 0.125008f
c39 220 0 0.340373f
c40 215 0 0.169459f
c41 213 0 0.0653495f
c42 210 0 0.165089f
c43 208 0 0.0652895f
c44 206 0 0.137225f
c45 202 0 0.136461f
c46 198 0 0.111335f
c47 194 0 0.112251f
c48 181 0 0.245879f
c49 177 0 7.80546e-20
c50 176 0 0.247491f
c51 172 0 1.61169e-19
c52 171 0 0.020354f
c53 170 0 0.023984f
c54 169 0 0.0372094f
c55 163 0 0.177424f
c56 162 0 0.105959f
c57 156 0 0.176442f
c58 155 0 0.105725f
c59 152 0 0.048948f
c60 148 0 0.031367f
c61 144 0 0.019577f
c62 142 0 0.0190253f
c63 140 0 0.0660438f
c64 136 0 0.135302f
c65 133 0 0.044851f
c66 130 0 0.0385793f
c67 129 0 0.126136f
c68 126 0 0.0707348f
c69 121 0 0.879775f
c70 110 0 0.0444949f
c71 108 0 0.0432185f
c72 105 0 0.10729f
c73 100 0 0.108387f
c74 87 0 0.0150402f
c75 86 0 0.0010644f
c76 85 0 0.024893f
c77 84 0 0.00611693f
c78 81 0 0.106228f
c79 80 0 0.271019f
c80 78 0 0.0962176f
c81 76 0 0.0137335f
c82 75 0 0.139167f
c83 74 0 0.00964917f
c84 73 0 0.0227652f
c85 72 0 0.288793f
c86 70 0 0.230348f
c87 68 0 0.0174731f
c88 59 0 0.077996f
c89 58 0 0.139366f
c90 57 0 0.156812f
c91 56 0 0.0920454f
c92 55 0 0.138853f
c93 54 0 0.151427f
c94 51 0 0.1073f
c95 46 0 0.1073f
c96 42 0 0.205767f
c97 40 0 0.205766f
c98 21 0 0.0323864f
c99 19 0 0.0411372f
c100 18 0 0.0417732f
c101 17 0 0.0294986f
c102 16 0 0.0688462f
c103 12 0 0.0175825f
c104 10 0 0.0836266f
r105 357 358 4
r106 353 354 4
r107 349 350 4
r108 314 316 0.0494173
r109 307 309 0.0494173
r110 295 296 4
r111 285 346 0.0516853
r112 284 285 6.6276
r113 282 284 2.20213
r114 279 344 0.0516853
r115 278 279 6.6276
r116 276 278 2.20213
r117 264 287 7.73958
r118 264 266 35.75
r119 263 287 7.73958
r120 262 282 4.73303
r121 262 263 55
r122 258 282 4.73303
r123 258 260 49.5
r124 254 281 7.73958
r125 254 256 35.75
r126 253 281 7.73958
r127 252 276 4.73303
r128 252 253 55
r129 248 276 4.73303
r130 248 250 49.5
r131 240 275 1.29764
r132 240 242 17.0426
r133 239 287 1.29764
r134 239 242 7.46809
r135 235 274 1.29764
r136 235 237 17.0426
r137 234 281 1.29764
r138 234 237 7.46809
r139 230 275 7.73958
r140 230 232 35.75
r141 226 275 7.73958
r142 226 228 128
r143 222 274 7.73958
r144 222 224 35.75
r145 218 274 7.73958
r146 218 220 128
r147 215 216 4.4184
r148 213 273 8.43372
r149 213 272 8.43372
r150 213 215 7.85106
r151 210 211 4.4184
r152 208 270 8.43372
r153 208 269 8.43372
r154 208 210 7.85106
r155 206 272 37
r156 202 269 37
r157 198 273 23.5
r158 194 270 23.5
r159 189 296 16.3327
r160 187 189 4.59
r161 184 290 16.3327
r162 182 184 4.608
r163 181 314 4
r164 180 181 8.16635
r165 178 180 2.295
r166 177 180 2.295
r167 176 307 4
r168 175 176 8.16635
r169 173 175 2.304
r170 172 175 2.286
r171 170 290 4
r172 169 171 0.0492898
r173 169 170 4
r174 162 358 4
r175 162 163 4
r176 155 354 4
r177 155 156 4
r178 152 350 0.0337745
r179 148 152 4
r180 148 295 4
r181 142 144 0.0331373
r182 136 140 4
r183 136 137 4
r184 130 362 4
r185 129 133 4
r186 129 130 4
r187 124 126 0.0127451
r188 123 142 0.0363174
r189 123 126 0.0337745
r190 121 124 0.0421401
r191 121 171 3.0355
r192 110 111 2
r193 108 137 0.0322471
r194 108 110 0.0401471
r195 105 365 0.0492898
r196 100 361 0.0494173
r197 89 357 0.0670392
r198 88 353 0.0669118
r199 87 349 0.0669118
r200 85 111 0.0656373
r201 83 111 0.0344118
r202 83 84 0.0147006
r203 82 86 0.01625
r204 81 88 0.0421401
r205 81 82 0.3523
r206 80 87 0.0421401
r207 79 86 0.01625
r208 79 80 1.8291
r209 78 86 0.01625
r210 77 85 0.0421401
r211 77 78 0.7241
r212 75 89 0.0421401
r213 75 76 0.6292
r214 73 86 0.01625
r215 73 74 0.2119
r216 72 84 0.0213034
r217 72 365 1.2363
r218 70 362 0.0415856
r219 70 361 1.2194
r220 68 105 0.000127451
r221 67 76 0.0421401
r222 67 68 0.0669118
r223 65 74 0.0421401
r224 65 100 0.0669118
r225 58 59 4
r226 57 216 0.035
r227 57 58 0.0233404
r228 56 144 4
r229 55 56 4
r230 54 211 0.035
r231 54 55 0.0233404
r232 52 163 0.0407843
r233 51 52 4
r234 49 51 0.00329412
r235 47 156 0.0407843
r236 46 47 4
r237 44 46 0.00343137
r238 42 49 0.0468783
r239 42 346 0.413913
r240 40 44 0.0468783
r241 40 344 0.413913
r242 21 295 0.0522549
r243 20 59 0.0579902
r244 19 140 0.0331373
r245 19 20 0.0363174
r246 18 133 0.0331373
r247 17 170 0.0536569
r248 16 21 0.0421401
r249 16 316 0.2535
r250 12 56 0.00381737
r251 11 18 0.0363174
r252 11 12 0.0344118
r253 10 17 0.0421401
r254 10 309 0.2535
.ends

.subckt PM_FA4%4 60 65 77 81
c0 106 0 0.00838961f
c1 87 0 0.137471f
c2 83 0 0.0309584f
c3 81 0 0.338157f
c4 77 0 0.173453f
c5 70 0 0.097973f
c6 68 0 0.216358f
c7 67 0 0.0034239f
c8 63 0 0.157623f
c9 62 0 0.00866555f
c10 57 0 0.0774965f
c11 53 0 0.131093f
c12 50 0 0.155046f
c13 49 0 0.100742f
c14 46 0 0.0613212f
c15 41 0 0.191737f
c16 38 0 0.032154f
c17 34 0 0.0819981f
c18 33 0 0.0835127f
c19 27 0 0.024917f
c20 26 0 0.068394f
c21 24 0 0.0268591f
c22 22 0 0.0802135f
c23 17 0 0.284654f
c24 12 0 0.21828f
c25 11 0 0.105627f
r26 79 83 7.73958
r27 79 81 113.5
r28 75 83 7.73958
r29 75 77 50.25
r30 72 87 6.6276
r31 70 83 1.29764
r32 70 72 1.03404
r33 68 92 0.0610784
r34 67 68 16.3327
r35 65 67 4.608
r36 62 63 8.16635
r37 60 62 2.304
r38 57 110 0.049438
r39 53 92 4
r40 50 108 0.0492898
r41 49 53 4
r42 49 50 4
r43 46 111 0.0313529
r44 45 46 4
r45 41 45 0.0173544
r46 41 42 4
r47 38 106 0.0492898
r48 37 38 4
r49 34 87 4
r50 33 37 0.0208252
r51 33 34 4
r52 26 111 0.0262087
r53 26 110 0.5005
r54 24 57 0.000252427
r55 23 27 0.0190699
r56 23 24 0.0584369
r57 22 27 0.0190699
r58 22 108 0.2171
r59 17 27 0.0155047
r60 17 106 1.1921
r61 12 42 0.0252427
r62 11 12 4
r63 9 63 0.0252129
r64 9 11 0.0502353
.ends

.subckt PM_FA4%5 60 65 77 81
c0 108 0 0.0380734f
c1 106 0 0.00838961f
c2 87 0 0.137471f
c3 83 0 0.0309584f
c4 81 0 0.338157f
c5 77 0 0.174275f
c6 70 0 0.097973f
c7 68 0 0.216617f
c8 67 0 0.0034239f
c9 63 0 0.157623f
c10 62 0 0.00866555f
c11 57 0 0.0774966f
c12 53 0 0.139694f
c13 50 0 0.134487f
c14 49 0 0.108616f
c15 46 0 0.0576836f
c16 41 0 0.191735f
c17 38 0 0.032154f
c18 34 0 0.0819981f
c19 33 0 0.0835127f
c20 27 0 0.024917f
c21 26 0 0.068394f
c22 24 0 0.0268591f
c23 22 0 0.0802135f
c24 17 0 0.293392f
c25 12 0 0.21828f
c26 11 0 0.105627f
r27 79 83 7.73958
r28 79 81 113.5
r29 75 83 7.73958
r30 75 77 50.25
r31 72 87 6.6276
r32 70 83 1.29764
r33 70 72 1.03404
r34 68 92 0.0610784
r35 67 68 16.3327
r36 65 67 4.608
r37 62 63 8.16635
r38 60 62 2.304
r39 57 110 0.049438
r40 53 92 4
r41 50 108 0.0494173
r42 49 53 4
r43 49 50 4
r44 46 111 0.0313529
r45 45 46 4
r46 41 45 0.0173544
r47 41 42 4
r48 38 106 0.0492898
r49 37 38 4
r50 34 87 4
r51 33 37 0.0208252
r52 33 34 4
r53 26 111 0.0262087
r54 26 110 0.5005
r55 24 57 0.000252427
r56 23 27 0.0190699
r57 23 24 0.0584369
r58 22 27 0.0190699
r59 22 108 0.2171
r60 17 27 0.0155047
r61 17 106 1.1921
r62 12 42 0.0252427
r63 11 12 4
r64 9 63 0.0252129
r65 9 11 0.0502353
.ends

.subckt PM_FA4%6 57 62 74 78
c0 101 0 0.00898169f
c1 80 0 0.0354051f
c2 78 0 0.334401f
c3 74 0 0.16546f
c4 70 0 0.203703f
c5 67 0 0.113637f
c6 65 0 0.179248f
c7 60 0 0.163998f
c8 59 0 0.00862642f
c9 56 0 0.0473157f
c10 52 0 0.10359f
c11 48 0 0.0773426f
c12 44 0 0.040543f
c13 41 0 0.0629581f
c14 40 0 0.0371841f
c15 37 0 0.0457377f
c16 34 0 0.104969f
c17 33 0 0.064385f
c18 27 0 0.0162373f
c19 26 0 0.0685436f
c20 24 0 0.0268544f
c21 22 0 0.0480429f
c22 17 0 0.228817f
c23 12 0 0.223678f
c24 11 0 0.0927048f
r25 76 80 7.73958
r26 76 78 113.5
r27 72 80 7.73958
r28 72 74 50.25
r29 69 70 6.6276
r30 67 80 1.29764
r31 67 69 0.746809
r32 65 89 0.0610784
r33 64 65 16.3327
r34 62 64 4.59
r35 59 60 8.16635
r36 57 59 2.295
r37 56 106 0.0312255
r38 55 56 4
r39 52 55 0.0232143
r40 52 53 4
r41 48 105 0.049438
r42 44 103 0.0492898
r43 41 89 4
r44 40 44 4
r45 40 41 4
r46 37 101 0.0492898
r47 34 70 4
r48 33 37 4
r49 33 34 4
r50 26 106 0.0262087
r51 26 105 0.5252
r52 24 48 0.000252427
r53 23 27 0.0190699
r54 23 24 0.0584369
r55 22 27 0.0190699
r56 22 103 0.2171
r57 17 27 0.0155047
r58 17 101 1.1674
r59 12 53 0.0252427
r60 11 12 4
r61 9 60 0.0253396
r62 9 11 0.0446078
.ends

.subckt PM_FA4%7 57 62 74 78
c0 103 0 0.00842705f
c1 101 0 0.00898169f
c2 80 0 0.0354051f
c3 78 0 0.334401f
c4 74 0 0.16546f
c5 70 0 0.203703f
c6 67 0 0.113637f
c7 65 0 0.180354f
c8 60 0 0.165764f
c9 59 0 0.00791845f
c10 56 0 0.0473334f
c11 52 0 0.11903f
c12 48 0 0.102421f
c13 44 0 0.0322622f
c14 41 0 0.0631015f
c15 40 0 0.0661195f
c16 37 0 0.0457377f
c17 34 0 0.104969f
c18 33 0 0.064385f
c19 27 0 0.0164174f
c20 26 0 0.0685699f
c21 24 0 0.0270065f
c22 22 0 0.0481748f
c23 17 0 0.228675f
c24 12 0 0.218235f
c25 11 0 0.0949904f
r26 76 80 7.73958
r27 76 78 113.5
r28 72 80 7.73958
r29 72 74 50.25
r30 69 70 6.6276
r31 67 80 1.29764
r32 67 69 0.746809
r33 65 89 0.0610784
r34 64 65 16.3327
r35 62 64 4.59
r36 59 60 8.16635
r37 57 59 2.295
r38 56 106 0.0312255
r39 55 56 4
r40 52 55 0.0232143
r41 52 53 4
r42 48 105 0.049438
r43 44 103 0.0494173
r44 41 89 4
r45 40 44 4
r46 40 41 4
r47 37 101 0.0492898
r48 34 70 4
r49 33 37 4
r50 33 34 4
r51 26 106 0.0262087
r52 26 105 0.5252
r53 24 48 0.000252427
r54 23 27 0.0190699
r55 23 24 0.0584369
r56 22 27 0.0190699
r57 22 103 0.2171
r58 17 27 0.0155047
r59 17 101 1.1674
r60 12 53 0.0252427
r61 11 12 4
r62 9 60 0.0253396
r63 9 11 0.0446078
.ends

.subckt PM_FA4%8 59 64 76 80
c0 107 0 0.0384955f
c1 105 0 0.00838963f
c2 86 0 0.139428f
c3 82 0 0.0309584f
c4 80 0 0.339257f
c5 76 0 0.174909f
c6 69 0 0.0979907f
c7 67 0 0.216637f
c8 66 0 0.0034239f
c9 62 0 0.159346f
c10 61 0 0.00866555f
c11 56 0 0.0776522f
c12 52 0 0.142621f
c13 49 0 0.117851f
c14 48 0 0.100971f
c15 45 0 0.0471988f
c16 41 0 0.179675f
c17 38 0 0.0343816f
c18 34 0 0.0837203f
c19 33 0 0.109365f
c20 27 0 0.0249597f
c21 26 0 0.0697546f
c22 24 0 0.0271873f
c23 22 0 0.0808065f
c24 17 0 0.306122f
c25 12 0 0.219578f
c26 11 0 0.105627f
r27 78 82 7.73958
r28 78 80 113.5
r29 74 82 7.73958
r30 74 76 50.25
r31 71 86 6.6276
r32 69 82 1.29764
r33 69 71 1.05319
r34 67 91 0.0610784
r35 66 67 16.3327
r36 64 66 4.59
r37 61 62 8.16635
r38 59 61 2.295
r39 56 109 0.049438
r40 52 91 4
r41 49 107 0.0494173
r42 48 52 4
r43 48 49 4
r44 45 110 0.0312255
r45 41 45 4
r46 41 42 4
r47 38 105 0.0494173
r48 37 38 4
r49 34 86 4
r50 33 37 0.0208252
r51 33 34 4
r52 26 110 0.0262087
r53 26 109 0.4888
r54 24 56 0.000252427
r55 23 27 0.0190699
r56 23 24 0.0584369
r57 22 27 0.0190699
r58 22 107 0.2171
r59 17 27 0.0155047
r60 17 105 1.1921
r61 12 42 0.0252427
r62 11 12 4
r63 9 62 0.0253396
r64 9 11 0.050098
.ends

.subckt PM_FA4%9 60 65 77 81
c0 106 0 0.00838961f
c1 87 0 0.139301f
c2 83 0 0.0309584f
c3 81 0 0.338167f
c4 77 0 0.173453f
c5 70 0 0.0979884f
c6 68 0 0.216358f
c7 67 0 0.0034239f
c8 63 0 0.157623f
c9 62 0 0.00866555f
c10 57 0 0.0774965f
c11 53 0 0.131093f
c12 50 0 0.155046f
c13 49 0 0.100742f
c14 46 0 0.0576836f
c15 41 0 0.191735f
c16 38 0 0.0340997f
c17 34 0 0.0858006f
c18 33 0 0.0850155f
c19 27 0 0.024917f
c20 26 0 0.068394f
c21 24 0 0.0268591f
c22 22 0 0.0802135f
c23 17 0 0.284654f
c24 12 0 0.220876f
c25 11 0 0.105627f
r26 79 83 7.73958
r27 79 81 113.5
r28 75 83 7.73958
r29 75 77 50.25
r30 72 87 6.6276
r31 70 83 1.29764
r32 70 72 1.05319
r33 68 92 0.0610784
r34 67 68 16.3327
r35 65 67 4.59
r36 62 63 8.16635
r37 60 62 2.295
r38 57 110 0.049438
r39 53 92 4
r40 50 108 0.0492898
r41 49 53 4
r42 49 50 4
r43 46 111 0.0312255
r44 45 46 4
r45 41 45 0.0173544
r46 41 42 4
r47 38 106 0.0494173
r48 37 38 4
r49 34 87 4
r50 33 37 0.0208252
r51 33 34 4
r52 26 111 0.0262087
r53 26 110 0.5005
r54 24 57 0.000252427
r55 23 27 0.0190699
r56 23 24 0.0584369
r57 22 27 0.0190699
r58 22 108 0.2171
r59 17 27 0.0155047
r60 17 106 1.1921
r61 12 42 0.0252427
r62 11 12 4
r63 9 63 0.0253396
r64 9 11 0.050098
.ends

.subckt PM_FA4%10 57 62 74 78
c0 103 0 0.00878259f
c1 101 0 0.00898173f
c2 80 0 0.0354051f
c3 78 0 0.334401f
c4 74 0 0.16546f
c5 70 0 0.203609f
c6 67 0 0.113637f
c7 65 0 0.179262f
c8 60 0 0.163974f
c9 59 0 0.00720353f
c10 56 0 0.0404427f
c11 52 0 0.145022f
c12 48 0 0.143204f
c13 44 0 0.0333414f
c14 41 0 0.0645133f
c15 40 0 0.0904996f
c16 37 0 0.0457424f
c17 34 0 0.10411f
c18 33 0 0.0654705f
c19 27 0 0.016817f
c20 26 0 0.0709589f
c21 24 0 0.0284644f
c22 22 0 0.0481082f
c23 17 0 0.228601f
c24 12 0 0.22131f
c25 11 0 0.0896064f
r26 76 80 7.73958
r27 76 78 113.5
r28 72 80 7.73958
r29 72 74 50.25
r30 69 70 6.6276
r31 67 80 1.29764
r32 67 69 0.765957
r33 65 89 0.0610784
r34 64 65 16.3327
r35 62 64 4.59
r36 59 60 8.16635
r37 57 59 2.295
r38 56 106 0.0254902
r39 55 56 4
r40 52 55 0.0233495
r41 52 53 4
r42 48 105 0.049438
r43 44 103 0.0494173
r44 41 89 4
r45 40 44 4
r46 40 41 4
r47 37 101 0.0494173
r48 34 70 4
r49 33 37 4
r50 33 34 4
r51 26 106 0.0262087
r52 26 105 0.5252
r53 24 48 0.000252427
r54 23 27 0.0190699
r55 23 24 0.0584369
r56 22 27 0.0190699
r57 22 103 0.2171
r58 17 27 0.0155047
r59 17 101 1.1674
r60 12 53 0.0252427
r61 11 12 4
r62 9 60 0.0253396
r63 9 11 0.0446078
.ends

.subckt PM_FA4%11 57 62 74 78
c0 101 0 0.00898169f
c1 80 0 0.0354051f
c2 78 0 0.334401f
c3 74 0 0.16546f
c4 70 0 0.203703f
c5 67 0 0.113637f
c6 65 0 0.193973f
c7 60 0 0.165746f
c8 59 0 0.00716614f
c9 56 0 0.0466586f
c10 52 0 0.164748f
c11 48 0 0.15145f
c12 44 0 0.0429f
c13 41 0 0.0832069f
c14 40 0 0.0998961f
c15 37 0 0.0457377f
c16 34 0 0.104969f
c17 33 0 0.064385f
c18 27 0 0.0169399f
c19 26 0 0.0640335f
c20 24 0 0.0286472f
c21 22 0 0.0482378f
c22 17 0 0.228751f
c23 12 0 0.212232f
c24 11 0 0.0618883f
r25 76 80 7.73958
r26 76 78 113.5
r27 72 80 7.73958
r28 72 74 50.25
r29 69 70 6.6276
r30 67 80 1.29764
r31 67 69 0.765957
r32 65 89 0.0610784
r33 64 65 16.3327
r34 62 64 4.59
r35 59 60 8.16635
r36 57 59 2.295
r37 56 106 0.0267647
r38 55 56 4
r39 52 55 0.0233495
r40 52 53 4
r41 48 105 0.049438
r42 44 103 0.0492898
r43 41 89 4
r44 40 44 4
r45 40 41 4
r46 37 101 0.0494173
r47 34 70 4
r48 33 37 4
r49 33 34 4
r50 26 106 0.0262087
r51 26 105 0.5252
r52 24 48 0.000252427
r53 23 27 0.0190699
r54 23 24 0.0584369
r55 22 27 0.0190699
r56 22 103 0.2171
r57 17 27 0.0155047
r58 17 101 1.1674
r59 12 53 0.0252427
r60 11 12 4
r61 9 60 0.0253396
r62 9 11 0.0446078
.ends

.subckt PM_FA4%noxref_12 20 21 25 26
c0 29 0 0.236133f
c1 24 0 0.227946f
c2 17 0 0.11625f
c3 12 0 0.0746591f
c4 3 0 0.0305445f
c5 2 0 0.084173f
r6 37 38 4
r7 32 33 4
r8 29 38 0.0610784
r9 28 29 16.3327
r10 26 28 4.608
r11 25 28 4.572
r12 24 33 0.0610784
r13 23 24 16.3327
r14 21 23 4.608
r15 20 23 4.572
r16 17 37 0.0732843
r17 12 32 0.0739216
r18 5 17 0.0504706
r19 4 12 0.0498333
r20 3 4 0.0421401
r21 2 5 0.0421401
r22 2 3 0.2288
.ends

.subckt PM_FA4%noxref_13 20 21 25 26
c0 29 0 0.236169f
c1 24 0 0.228262f
c2 17 0 0.126083f
c3 12 0 0.0834132f
c4 3 0 0.0417885f
c5 2 0 0.147976f
r6 37 38 4
r7 32 33 4
r8 29 38 0.0610784
r9 28 29 16.3327
r10 26 28 4.608
r11 25 28 4.572
r12 24 33 0.0610784
r13 23 24 16.3327
r14 21 23 4.608
r15 20 23 4.572
r16 17 37 0.0732843
r17 12 32 0.0739216
r18 5 17 0.0503431
r19 4 12 0.0497059
r20 3 4 0.0421401
r21 2 5 0.0421401
r22 2 3 0.2288
.ends

.subckt PM_FA4%S0 19 20 24 25 40
c0 40 0 0.268979f
c1 28 0 0.20792f
c2 16 0 0.363991f
c3 11 0 0.137277f
c4 10 0 0.184784f
c5 3 0 0.313012f
r6 27 28 16.3327
r7 25 27 4.608
r8 24 27 4.572
r9 22 40 8.16635
r10 20 22 2.304
r11 19 22 2.286
r12 16 40 4
r13 11 29 0.0351765
r14 10 11 4
r15 7 28 0.294913
r16 6 10 0.0365098
r17 6 7 0.031094
r18 3 16 0.0550977
r19 2 29 0.0262087
r20 2 3 0.5863
.ends

.subckt PM_FA4%S1 19 20 24 25 40
c0 40 0 0.268979f
c1 28 0 0.207966f
c2 16 0 0.363991f
c3 11 0 0.137277f
c4 10 0 0.184786f
c5 3 0 0.313012f
r6 27 28 16.3327
r7 25 27 4.608
r8 24 27 4.572
r9 22 40 8.16635
r10 20 22 2.304
r11 19 22 2.286
r12 16 40 4
r13 11 29 0.0351765
r14 10 11 4
r15 7 28 0.295217
r16 6 10 0.0365098
r17 6 7 0.031094
r18 3 16 0.0550977
r19 2 29 0.0262087
r20 2 3 0.5863
.ends

.subckt PM_FA4%noxref_16 16 21
c0 33 0 0.320198f
c1 28 0 0.168986f
c2 27 0 0.208837f
c3 24 0 0.310909f
c4 23 0 0.00118693f
c5 14 0 0.167886f
c6 12 0 0.187655f
c7 8 0 0.365825f
r8 27 28 4
r9 24 33 4
r10 23 24 8.16635
r11 21 23 2.304
r12 18 28 8.16635
r13 16 18 2.286
r14 15 33 0.0879412
r15 14 15 4
r16 13 27 0.0879412
r17 12 13 4
r18 9 12 0.0392568
r19 8 14 0.0392719
r20 8 9 0.6318
.ends

.subckt PM_FA4%noxref_17 16 21
c0 33 0 0.320198f
c1 28 0 0.175154f
c2 27 0 0.206062f
c3 24 0 0.310909f
c4 23 0 0.00118693f
c5 14 0 0.167886f
c6 12 0 0.188205f
c7 8 0 0.365825f
r8 27 28 4
r9 24 33 4
r10 23 24 8.16635
r11 21 23 2.304
r12 18 28 8.16635
r13 16 18 2.286
r14 15 33 0.0879412
r15 14 15 4
r16 13 27 0.0879412
r17 12 13 4
r18 9 12 0.0392568
r19 8 14 0.0392719
r20 8 9 0.6318
.ends

.subckt PM_FA4%18 91 92 96 97 105 109 115 119 125 129
c0 155 0 0.157533f
c1 154 0 0.158018f
c2 151 0 0.0746898f
c3 143 0 0.0448613f
c4 141 0 0.0660883f
c5 138 0 0.0506906f
c6 136 0 0.0939977f
c7 133 0 0.111911f
c8 132 0 0.176113f
c9 129 0 0.131564f
c10 125 0 0.314612f
c11 121 0 0.0405517f
c12 119 0 0.161011f
c13 115 0 0.33677f
c14 111 0 0.0573045f
c15 109 0 0.109465f
c16 105 0 0.129939f
c17 100 0 0.206683f
c18 95 0 0.26871f
c19 90 0 1.16041f
c20 89 0 0.198492f
c21 87 0 0.0943714f
c22 86 0 0.0123068f
c23 84 0 0.0340481f
c24 80 0 0.351018f
c25 75 0 0.12445f
c26 73 0 0.044761f
c27 71 0 0.0936088f
c28 70 0 0.043847f
c29 67 0 0.00785341f
c30 66 0 0.250778f
c31 64 0 0.10821f
c32 63 0 0.0350376f
c33 56 0 0.0565164f
c34 55 0 0.0378901f
c35 48 0 0.132214f
c36 47 0 0.189727f
c37 42 0 0.0483503f
c38 41 0 0.00976272f
c39 40 0 0.0761945f
c40 37 0 0.0527531f
c41 34 0 0.0804967f
c42 33 0 0.0278518f
c43 31 0 0.0205206f
c44 30 0 0.192132f
c45 27 0 0.096292f
c46 23 0 0.0559531f
c47 22 0 0.0450566f
c48 14 0 0.178166f
c49 13 0 0.111291f
c50 11 0 0.319106f
r51 154 157 0.0289124
r52 154 155 4
r53 141 143 8.07022
r54 141 155 6.6276
r55 136 138 8.07022
r56 136 137 6.6276
r57 132 133 6.6276
r58 129 143 38
r59 125 139 101.75
r60 121 139 6.49109
r61 121 141 9.19149
r62 119 138 38.5
r63 115 134 101.25
r64 111 134 6.57073
r65 111 136 9.19149
r66 107 132 7.73958
r67 107 109 23.25
r68 103 132 7.73958
r69 103 105 37.25
r70 99 100 16.3327
r71 97 99 4.59
r72 96 99 4.59
r73 94 95 8.16635
r74 92 94 2.295
r75 91 94 2.295
r76 88 89 4
r77 86 87 0.3172
r78 84 86 0.0494173
r79 80 95 4
r80 75 76 4
r81 73 90 0.0462453
r82 73 75 0.0662745
r83 71 157 0.0388725
r84 70 71 4
r85 68 70 0.0426961
r86 66 68 0.0421401
r87 66 67 0.8515
r88 64 151 0.0363235
r89 63 64 4
r90 61 67 0.0421401
r91 61 63 0.0452451
r92 60 88 0.0420292
r93 60 90 2.0761
r94 56 88 0.000110895
r95 55 87 0.0420619
r96 55 56 0.0662745
r97 48 158 0.035049
r98 47 48 4
r99 44 100 0.294913
r100 43 47 0.0363725
r101 43 44 0.031094
r102 41 133 0.0748222
r103 41 42 0.0439531
r104 40 137 0.0184317
r105 39 40 0.0396667
r106 37 151 0.0181587
r107 36 37 4
r108 34 137 0.0208784
r109 34 36 0.00672549
r110 33 42 0.173478
r111 30 39 0.0446868
r112 30 31 0.436739
r113 28 89 0.114069
r114 27 28 2.66667
r115 25 33 0.0468783
r116 25 27 0.0686275
r117 23 84 4
r118 22 23 4
r119 20 31 0.0468783
r120 20 22 0.0748039
r121 14 76 0.000637255
r122 13 14 0.0421401
r123 12 13 0.2626
r124 11 80 0.0550847
r125 11 12 0.0395463
r126 10 158 0.0262087
r127 10 11 0.5863
.ends

.subckt PM_FA4%19 91 92 96 97 105 109 115 119 125 129
c0 155 0 0.157533f
c1 154 0 0.158018f
c2 151 0 0.0746898f
c3 143 0 0.0448613f
c4 141 0 0.0660883f
c5 138 0 0.0506906f
c6 136 0 0.0939977f
c7 133 0 0.111811f
c8 132 0 0.175923f
c9 129 0 0.131564f
c10 125 0 0.315105f
c11 121 0 0.0405517f
c12 119 0 0.161011f
c13 115 0 0.33677f
c14 111 0 0.0573045f
c15 109 0 0.109276f
c16 105 0 0.129939f
c17 100 0 0.206683f
c18 95 0 0.26871f
c19 90 0 1.16068f
c20 89 0 0.206103f
c21 87 0 0.0943714f
c22 86 0 0.0123068f
c23 84 0 0.0340481f
c24 80 0 0.351018f
c25 75 0 0.130154f
c26 73 0 0.0474991f
c27 71 0 0.0936088f
c28 70 0 0.043847f
c29 67 0 0.00785341f
c30 66 0 0.250778f
c31 64 0 0.10821f
c32 63 0 0.0350376f
c33 56 0 0.0568097f
c34 55 0 0.0381468f
c35 48 0 0.132214f
c36 47 0 0.189727f
c37 42 0 0.0494083f
c38 41 0 0.00976272f
c39 40 0 0.0761945f
c40 37 0 0.0527531f
c41 34 0 0.0804967f
c42 33 0 0.0280565f
c43 31 0 0.020585f
c44 30 0 0.193052f
c45 27 0 0.0994683f
c46 23 0 0.0559617f
c47 22 0 0.0456014f
c48 14 0 0.178197f
c49 13 0 0.111291f
c50 11 0 0.319106f
r51 154 157 0.0289124
r52 154 155 4
r53 141 143 8.07022
r54 141 155 6.6276
r55 136 138 8.07022
r56 136 137 6.6276
r57 132 133 6.6276
r58 129 143 38
r59 125 139 101.75
r60 121 139 6.49109
r61 121 141 9.19149
r62 119 138 38.5
r63 115 134 101.25
r64 111 134 6.57073
r65 111 136 9.19149
r66 107 132 7.73958
r67 107 109 23.25
r68 103 132 7.73958
r69 103 105 37.25
r70 99 100 16.3327
r71 97 99 4.59
r72 96 99 4.59
r73 94 95 8.16635
r74 92 94 2.295
r75 91 94 2.295
r76 88 89 4
r77 86 87 0.3172
r78 84 86 0.0494173
r79 80 95 4
r80 75 76 4
r81 73 90 0.0462453
r82 73 75 0.0662745
r83 71 157 0.0388725
r84 70 71 4
r85 68 70 0.0426961
r86 66 68 0.0421401
r87 66 67 0.8515
r88 64 151 0.0363235
r89 63 64 4
r90 61 67 0.0421401
r91 61 63 0.0452451
r92 60 88 0.0420292
r93 60 90 2.0761
r94 56 88 0.000110895
r95 55 87 0.0420619
r96 55 56 0.0662745
r97 48 158 0.035049
r98 47 48 4
r99 44 100 0.295217
r100 43 47 0.0363725
r101 43 44 0.031094
r102 41 133 0.0748222
r103 41 42 0.0439531
r104 40 137 0.0184317
r105 39 40 0.0396667
r106 37 151 0.0181587
r107 36 37 4
r108 34 137 0.0208784
r109 34 36 0.00672549
r110 33 42 0.173478
r111 30 39 0.0446868
r112 30 31 0.436739
r113 28 89 0.114069
r114 27 28 2.66667
r115 25 33 0.0468783
r116 25 27 0.0686275
r117 23 84 4
r118 22 23 4
r119 20 31 0.0468783
r120 20 22 0.0748039
r121 14 76 0.000637255
r122 13 14 0.0421401
r123 12 13 0.2626
r124 11 80 0.0550847
r125 11 12 0.0395463
r126 10 158 0.0262087
r127 10 11 0.5863
.ends

.subckt PM_FA4%A0 36 63 67 76 80 86 90
c0 119 0 0.021717f
c1 111 0 0.148369f
c2 110 0 0.159585f
c3 107 0 0.0748836f
c4 106 0 0.0211054f
c5 102 0 0.0447247f
c6 100 0 0.0654123f
c7 97 0 0.0664136f
c8 96 0 0.0508155f
c9 94 0 0.0936793f
c10 90 0 0.133343f
c11 86 0 0.308512f
c12 82 0 0.040057f
c13 80 0 0.113666f
c14 76 0 0.130149f
c15 72 0 0.125246f
c16 69 0 0.163507f
c17 67 0 0.162342f
c18 63 0 0.337376f
c19 59 0 0.0577778f
c20 57 0 0.0962682f
c21 56 0 0.0491944f
c22 53 0 0.0136015f
c23 52 0 0.234184f
c24 50 0 0.111226f
c25 49 0 0.0411469f
c26 44 0 0.158327f
c27 39 0 0.110226f
c28 38 0 0.101156f
c29 33 0 0.0748786f
c30 32 0 0.0539863f
c31 30 0 0.0565963f
c32 27 0 0.0783078f
c33 26 0 0.0330346f
c34 25 0 0.149944f
c35 23 0 0.0776628f
c36 22 0 0.0621979f
c37 12 0 0.317633f
c38 9 0 0.0251631f
c39 8 0 0.029191f
c40 7 0 0.438921f
r41 110 113 0.0289124
r42 110 111 4
r43 100 102 8.07022
r44 100 111 6.6276
r45 94 96 8.07022
r46 94 95 6.6276
r47 90 102 38
r48 86 98 101.75
r49 82 98 6.49109
r50 82 100 9.19149
r51 78 97 7.73958
r52 78 80 23.5
r53 74 97 7.73958
r54 74 76 37
r55 71 72 4.4184
r56 69 97 1.29764
r57 69 71 8.52128
r58 67 96 38.5
r59 63 92 101.25
r60 59 92 6.57073
r61 59 94 9.19149
r62 57 113 0.0388725
r63 56 57 4
r64 54 56 0.0426961
r65 52 54 0.0421401
r66 52 53 0.8515
r67 50 107 0.0363235
r68 49 50 4
r69 47 53 0.0421401
r70 47 49 0.0452451
r71 44 119 0.0492898
r72 38 39 4
r73 37 72 0.0381111
r74 37 38 0.0225214
r75 33 95 0.0184317
r76 32 36 0.0259807
r77 32 33 0.0373333
r78 30 107 0.0181587
r79 29 30 4
r80 27 95 0.0208784
r81 27 29 0.00672549
r82 25 36 0.0187061
r83 25 26 0.397174
r84 23 106 0.0494173
r85 22 23 4
r86 20 26 0.0468783
r87 20 22 0.0727451
r88 16 39 0.0637255
r89 12 16 0.0421401
r90 12 119 0.572
r91 8 44 0.000127451
r92 8 9 0.0669118
r93 7 9 0.0421401
r94 7 106 0.7137
.ends

.subckt PM_FA4%A1 36 63 67 76 80 86 90
c0 119 0 0.0217808f
c1 111 0 0.148422f
c2 110 0 0.159173f
c3 107 0 0.0748836f
c4 106 0 0.0211054f
c5 102 0 0.0447249f
c6 100 0 0.0654126f
c7 97 0 0.0664136f
c8 96 0 0.0508155f
c9 94 0 0.0936793f
c10 90 0 0.133324f
c11 86 0 0.310477f
c12 82 0 0.0400571f
c13 80 0 0.114153f
c14 76 0 0.130149f
c15 72 0 0.125246f
c16 69 0 0.163443f
c17 67 0 0.162342f
c18 63 0 0.337376f
c19 59 0 0.0577778f
c20 57 0 0.0960183f
c21 56 0 0.0500667f
c22 53 0 0.0136015f
c23 52 0 0.236823f
c24 50 0 0.111226f
c25 49 0 0.0411469f
c26 44 0 0.177302f
c27 39 0 0.112105f
c28 38 0 0.101141f
c29 33 0 0.0748786f
c30 30 0 0.0565963f
c31 27 0 0.0783078f
c32 25 0 0.20393f
c33 23 0 0.0776628f
c34 22 0 0.0621979f
c35 20 0 0.0330346f
c36 12 0 0.318322f
c37 9 0 0.0245107f
c38 8 0 0.0293217f
c39 7 0 0.438921f
r40 110 113 0.0289124
r41 110 111 4
r42 100 102 8.07022
r43 100 111 6.6276
r44 94 96 8.07022
r45 94 95 6.6276
r46 90 102 38
r47 86 98 101.75
r48 82 98 6.49109
r49 82 100 9.19149
r50 78 97 7.73958
r51 78 80 23.5
r52 74 97 7.73958
r53 74 76 37
r54 71 72 4.4184
r55 69 97 1.29764
r56 69 71 8.52128
r57 67 96 38.5
r58 63 92 101.25
r59 59 92 6.57073
r60 59 94 9.19149
r61 57 113 0.0388725
r62 56 57 4
r63 54 56 0.0426961
r64 52 54 0.0421401
r65 52 53 0.8515
r66 50 107 0.0363235
r67 49 50 4
r68 47 53 0.0421401
r69 47 49 0.0452451
r70 44 119 0.0492898
r71 38 39 4
r72 37 72 0.0381111
r73 37 38 0.0225214
r74 33 95 0.0184317
r75 32 33 0.0373333
r76 30 107 0.0181587
r77 29 30 4
r78 27 95 0.0208784
r79 27 29 0.00672549
r80 26 36 0.0249678
r81 25 32 0.0446868
r82 25 26 0.397174
r83 23 106 0.0494173
r84 22 23 4
r85 20 36 0.0219105
r86 20 22 0.0727451
r87 16 39 0.0637255
r88 12 16 0.0421401
r89 12 119 0.572
r90 8 44 0.000127451
r91 8 9 0.0669118
r92 7 9 0.0421401
r93 7 106 0.7137
.ends

.subckt PM_FA4%noxref_22 20 21 25 26
c0 29 0 0.236376f
c1 24 0 0.230813f
c2 17 0 0.115739f
c3 12 0 0.105957f